      256
#	X	Y	Z
C	   4.810	   1.298	  50.000
C	   3.284	  65.316	  50.000
C	  10.598	   1.428	  50.000
C	  16.006	   2.288	  50.000
C	  21.087	   2.576	  50.000
C	   3.676	  91.094	  50.000
C	  10.225	  89.796	  50.000
C	   2.896	  27.453	  50.000
C	   8.117	  27.455	  50.000
C	  17.475	  27.884	  50.000
C	  22.430	  28.274	  50.000
C	  28.461	  28.854	  50.000
C	  33.508	  28.624	  50.000
C	  42.686	  27.399	  50.000
C	  47.799	  28.152	  50.000
C	  53.044	  28.190	  50.000
C	  59.602	  28.000	  50.000
C	  64.651	  28.499	  50.000
C	  69.776	  29.359	  50.000
C	  74.852	  29.856	  50.000
C	  84.679	  29.974	  50.000
C	  91.833	  29.043	  50.000
C	  97.883	  29.239	  50.000
C	   1.874	  35.588	  50.000
C	   8.662	  32.718	  50.000
C	  14.631	  35.960	  50.000
C	  20.855	  36.021	  50.000
C	  29.374	  33.829	  50.000
C	  10.470	  65.234	  50.000
C	  16.479	  62.856	  50.000
C	  21.398	  66.012	  50.000
C	  27.756	  65.822	  50.000
C	  36.279	  64.989	  50.000
C	  42.132	  65.842	  50.000
C	  48.790	  65.415	  50.000
C	  55.199	  65.186	  50.000
C	  59.781	  67.464	  50.000
C	  66.626	  64.802	  50.000
C	  72.211	  66.455	  50.000
C	   4.318	  75.441	  50.000
C	   8.771	  78.623	  50.000
C	  15.424	  79.565	  50.000
C	  20.271	  77.875	  50.000
C	  27.698	  78.740	  50.000
C	  32.480	  81.716	  50.000
C	  41.450	  78.936	  50.000
C	  48.819	  78.548	  50.000
C	  54.335	  77.014	  50.000
C	  58.395	  81.036	  50.000
C	  65.746	  78.650	  50.000
C	  71.180	  78.959	  50.000
C	  77.284	  66.276	  50.000
C	  35.366	  33.671	  50.000
C	  42.164	  34.364	  50.000
C	  47.056	  33.175	  50.000
C	  52.825	  34.485	  50.000
C	  59.879	  33.090	  50.000
C	  66.501	  33.842	  50.000
C	  71.597	  34.150	  50.000
C	  76.801	  35.398	  50.000
C	  81.532	  37.232	  50.000
C	  92.779	  34.064	  50.000
C	  96.974	  36.920	  50.000
C	  84.291	  65.303	  50.000
C	  90.059	  65.898	  50.000
C	  98.338	  68.585	  50.000
C	   4.022	  70.331	  50.000
C	   1.738	  40.706	  50.000
C	  15.303	  89.848	  50.000
C	   2.613	  55.476	  50.000
C	   9.458	  51.431	  50.000
C	  14.456	  52.670	  50.000
C	  22.978	  53.702	  50.000
C	  29.565	  55.416	  50.000
C	  32.291	  50.501	  50.000
C	  39.657	  52.566	  50.000
C	  45.724	  51.794	  50.000
C	  52.152	  53.740	  50.000
C	  58.270	  54.113	  50.000
C	  65.860	  52.683	  50.000
C	  20.412	  89.660	  50.000
C	  26.642	  91.015	  50.000
C	  32.126	  91.912	  50.000
C	  40.615	  89.597	  50.000
C	  45.926	  90.328	  50.000
C	  52.695	  90.079	  50.000
C	  57.525	  91.776	  50.000
C	  63.446	  90.186	  50.000
C	  70.141	  89.492	  50.000
C	  77.685	  92.059	  50.000
C	  82.570	  90.579	  50.000
C	  87.679	  91.321	  50.000
C	  96.628	  89.341	  50.000
C	   1.262	  95.498	  50.000
C	   8.129	  94.637	  50.000
C	  13.901	  96.241	  50.000
C	  23.518	  95.014	  50.000
C	  28.500	  96.005	  50.000
C	  34.384	  97.084	  50.000
C	  41.315	  95.067	  50.000
C	  48.149	  98.625	  50.000
C	  54.325	  96.005	  50.000
C	  60.335	  99.487	  50.000
C	  67.749	  96.767	  50.000
C	  72.662	  94.861	  50.000
C	  78.027	  97.700	  50.000
C	  84.914	  96.798	  50.000
C	  90.085	  97.023	  50.000
C	  95.263	  94.275	  50.000
C	   8.300	  41.023	  50.000
C	  16.244	  40.980	  50.000
C	  24.805	  40.947	  50.000
C	  30.217	  38.886	  50.000
C	  79.327	  78.777	  50.000
C	  26.331	   3.956	  50.000
C	  84.579	  78.061	  50.000
C	   8.834	  72.099	  50.000
C	   4.423	  16.371	  50.000
C	   9.344	  15.257	  50.000
C	  15.913	  14.631	  50.000
C	  22.538	  16.392	  50.000
C	  89.681	  80.386	  50.000
C	   0.374	  78.586	  50.000
C	   3.428	  84.135	  50.000
C	   9.307	  83.687	  50.000
C	  15.026	  84.704	  50.000
C	  22.173	  84.882	  50.000
C	  27.124	  83.779	  50.000
C	  35.218	  87.829	  50.000
C	  27.891	  17.577	  50.000
C	  17.468	  72.112	  50.000
C	  35.562	  38.741	  50.000
C	  33.586	   4.162	  50.000
C	  42.479	  40.735	  50.000
C	  38.384	  83.923	  50.000
C	  33.646	  16.450	  50.000
C	  48.299	  83.706	  50.000
C	  42.528	   1.847	  50.000
C	  54.598	  85.009	  50.000
C	  48.820	  39.985	  50.000
C	  40.120	  17.091	  50.000
C	  45.180	  15.863	  50.000
C	  53.583	  18.275	  50.000
C	  73.117	  54.165	  50.000
C	  61.714	  84.882	  50.000
C	  54.902	  39.092	  50.000
C	  59.280	  41.801	  50.000
C	  63.931	  39.811	  50.000
C	  59.126	  15.923	  50.000
C	  78.117	  53.272	  50.000
C	  66.718	  85.636	  50.000
C	  22.628	  70.956	  50.000
C	  46.982	   4.370	  50.000
C	  28.124	  70.860	  50.000
C	  71.751	  40.406	  50.000
C	  83.680	  50.751	  50.000
C	  72.494	  84.866	  50.000
C	  78.608	  86.325	  50.000
C	  68.017	  15.268	  50.000
C	  33.995	  71.842	  50.000
C	  78.317	  41.131	  50.000
C	  86.448	  38.494	  50.000
C	  92.585	  39.559	  50.000
C	  83.280	  82.926	  50.000
C	  96.851	  42.308	  50.000
C	   3.187	  48.768	  50.000
C	  89.964	  51.580	  50.000
C	  52.669	   0.857	  50.000
C	  96.538	  53.323	  50.000
C	  89.132	  85.485	  50.000
C	  40.420	  71.265	  50.000
C	  10.098	  46.356	  50.000
C	  15.538	  47.421	  50.000
C	  23.472	  46.082	  50.000
C	   4.191	  60.285	  50.000
C	  28.985	  46.345	  50.000
C	  45.585	  73.210	  50.000
C	  51.464	  71.456	  50.000
C	  60.278	  73.405	  50.000
C	  64.976	  71.302	  50.000
C	  72.253	  73.982	  50.000
C	  77.588	  72.937	  50.000
C	  82.471	  71.580	  50.000
C	  90.056	  74.861	  50.000
C	  95.312	  72.667	  50.000
C	  56.636	   4.308	  50.000
C	  67.319	   1.873	  50.000
C	  72.704	   0.456	  50.000
C	  77.597	   4.955	  50.000
C	  83.654	   4.970	  50.000
C	  72.940	  16.497	  50.000
C	  94.184	  84.876	  50.000
C	   8.770	  58.132	  50.000
C	  36.417	  47.524	  50.000
C	  42.228	  46.753	  50.000
C	  47.468	  46.548	  50.000
C	  52.514	  46.389	  50.000
C	  60.363	  47.019	  50.000
C	  66.882	  45.331	  50.000
C	  70.627	  48.709	  50.000
C	  78.171	  46.242	  50.000
C	  83.858	  44.654	  50.000
C	  14.806	  57.742	  50.000
C	  88.411	   1.890	  50.000
C	  20.352	  59.522	  50.000
C	  90.431	  46.491	  50.000
C	  97.477	   2.755	  50.000
C	  96.510	  48.241	  50.000
C	  25.237	  58.210	  50.000
C	   1.701	  11.028	  50.000
C	  36.002	  59.813	  50.000
C	  40.675	  57.660	  50.000
C	  46.798	  60.668	  50.000
C	  79.046	  13.983	  50.000
C	  11.127	   6.962	  50.000
C	  16.566	   9.572	  50.000
C	  21.856	  10.113	  50.000
C	  26.821	  11.208	  50.000
C	  34.230	  11.158	  50.000
C	  39.466	   7.534	  50.000
C	  47.121	   9.466	  50.000
C	  83.868	  17.404	  50.000
C	  54.098	  58.407	  50.000
C	  53.689	  11.681	  50.000
C	  60.220	  10.011	  50.000
C	  89.721	  13.992	  50.000
C	  58.612	  61.391	  50.000
C	  66.689	   7.613	  50.000
C	  71.648	   8.539	  50.000
C	  97.376	  15.787	  50.000
C	  63.069	  58.110	  50.000
C	  80.729	   9.164	  50.000
C	  84.895	  12.427	  50.000
C	   3.057	  21.359	  50.000
C	  69.748	  59.515	  50.000
C	  78.721	  60.372	  50.000
C	   8.065	  22.349	  50.000
C	  88.701	   9.031	  50.000
C	  96.813	   8.974	  50.000
C	  15.204	  22.569	  50.000
C	  22.156	  22.170	  50.000
C	  85.266	  56.867	  50.000
C	  92.326	  56.029	  50.000
C	  28.946	  23.268	  50.000
C	  34.931	  23.023	  50.000
C	  96.950	  60.723	  50.000
C	  41.139	  21.996	  50.000
C	  47.202	  20.480	  50.000
C	  51.215	  23.479	  50.000
C	  58.984	  22.801	  50.000
C	  66.527	  20.526	  50.000
C	  71.631	  23.256	  50.000
C	  77.273	  19.258	  50.000
C	  84.010	  23.928	  50.000
C	  92.063	  22.753	  50.000
C	  97.063	  21.531	  50.000
      256
#	X	Y	Z
C	   5.732	  99.799	  50.000
C	   4.560	  16.128	  50.000
C	  10.960	   0.730	  50.000
C	  16.453	   1.308	  50.000
C	  21.704	   1.813	  50.000
C	  26.063	   4.976	  50.000
C	   9.395	  14.517	  50.000
C	   1.923	  26.680	  50.000
C	   4.001	  90.921	  50.000
C	   4.189	  75.643	  50.000
C	   9.840	  78.583	  50.000
C	  14.937	  78.959	  50.000
C	  19.980	  78.529	  50.000
C	  34.168	   3.704	  50.000
C	  26.634	  78.413	  50.000
C	   3.663	  65.371	  50.000
C	  11.139	  64.316	  50.000
C	  10.271	  88.800	  50.000
C	   2.008	  41.893	  50.000
C	   9.431	  40.368	  50.000
C	  15.928	  40.926	  50.000
C	  24.595	  42.479	  50.000
C	  30.101	  39.444	  50.000
C	  35.075	  38.741	  50.000
C	  16.133	  14.847	  50.000
C	   6.931	  28.152	  50.000
C	  17.150	  27.820	  50.000
C	  22.113	  28.947	  50.000
C	  27.870	  28.589	  50.000
C	  33.652	  28.737	  50.000
C	  42.489	  27.072	  50.000
C	  47.806	  28.819	  50.000
C	  53.710	  28.627	  50.000
C	  59.370	  27.063	  50.000
C	  64.294	  28.423	  50.000
C	  69.791	  28.943	  50.000
C	  74.869	  29.855	  50.000
C	  84.588	  30.868	  50.000
C	  90.245	  28.502	  50.000
C	  97.648	  30.234	  50.000
C	   1.331	  35.073	  50.000
C	   9.229	  32.625	  50.000
C	  13.993	  36.212	  50.000
C	  19.469	  36.123	  50.000
C	  28.283	  34.256	  50.000
C	  35.321	  33.631	  50.000
C	  41.994	  34.621	  50.000
C	  47.114	  33.798	  50.000
C	  52.994	  34.462	  50.000
C	  60.182	  33.184	  50.000
C	  66.585	  32.936	  50.000
C	  71.684	  34.163	  50.000
C	  76.696	  34.708	  50.000
C	  80.903	  37.646	  50.000
C	  91.824	  33.814	  50.000
C	  96.285	  36.363	  50.000
C	  42.063	   1.863	  50.000
C	  47.412	   5.002	  50.000
C	  52.374	   1.969	  50.000
C	  57.357	   3.403	  50.000
C	  67.243	   1.922	  50.000
C	  72.226	   0.197	  50.000
C	  75.250	   5.205	  50.000
C	  83.339	   4.277	  50.000
C	  88.074	   2.159	  50.000
C	  96.475	   2.611	  50.000
C	   1.298	  10.549	  50.000
C	  10.304	   7.161	  50.000
C	  16.147	   8.176	  50.000
C	  22.404	   9.529	  50.000
C	  27.306	  10.688	  50.000
C	  34.794	  10.080	  50.000
C	  39.508	   8.086	  50.000
C	  46.333	   9.960	  50.000
C	  52.790	  12.117	  50.000
C	  61.177	   8.774	  50.000
C	  66.391	   7.247	  50.000
C	  71.446	   8.619	  50.000
C	  81.204	   8.866	  50.000
C	  84.648	  12.642	  50.000
C	  88.158	   8.965	  50.000
C	  96.698	   8.307	  50.000
C	  32.903	  82.269	  50.000
C	  41.020	  79.254	  50.000
C	  47.770	  79.074	  50.000
C	  53.955	  77.227	  50.000
C	  58.631	  80.146	  50.000
C	  65.112	  79.037	  50.000
C	  70.896	  78.337	  50.000
C	  79.415	  78.437	  50.000
C	  84.528	  77.780	  50.000
C	  90.459	  80.034	  50.000
C	   0.109	  79.711	  50.000
C	   3.239	  83.695	  50.000
C	   8.737	  83.548	  50.000
C	  14.999	  84.553	  50.000
C	  22.447	  84.356	  50.000
C	  27.411	  83.377	  50.000
C	  34.156	  87.290	  50.000
C	  37.974	  83.905	  50.000
C	  47.702	  84.355	  50.000
C	  54.538	  85.204	  50.000
C	  61.048	  84.819	  50.000
C	  66.498	  85.423	  50.000
C	  71.541	  85.170	  50.000
C	  78.193	  85.472	  50.000
C	  84.011	  82.956	  50.000
C	  89.738	  85.220	  50.000
C	  94.560	  83.409	  50.000
C	  17.081	  62.306	  50.000
C	  21.583	  66.359	  50.000
C	  27.105	  65.581	  50.000
C	  36.862	  64.878	  50.000
C	  41.955	  65.765	  50.000
C	  49.883	  65.067	  50.000
C	  55.372	  65.000	  50.000
C	  59.780	  67.613	  50.000
C	  67.433	  66.733	  50.000
C	  72.485	  66.379	  50.000
C	  77.686	  66.302	  50.000
C	  15.064	  90.714	  50.000
C	   1.812	  55.839	  50.000
C	   8.740	  51.422	  50.000
C	  13.727	  51.966	  50.000
C	  22.840	  53.493	  50.000
C	  30.596	  55.916	  50.000
C	  31.165	  50.110	  50.000
C	  40.028	  52.101	  50.000
C	  45.130	  51.587	  50.000
C	  51.742	  53.518	  50.000
C	  57.391	  54.934	  50.000
C	  65.165	  53.176	  50.000
C	  73.142	  53.565	  50.000
C	  78.203	  53.836	  50.000
C	  83.851	  51.709	  50.000
C	  90.354	  51.419	  50.000
C	  97.337	  53.361	  50.000
C	   4.229	  60.307	  50.000
C	   9.013	  58.085	  50.000
C	  14.176	  57.957	  50.000
C	  19.501	  57.837	  50.000
C	  24.764	  58.511	  50.000
C	  34.822	  58.791	  50.000
C	  40.418	  57.232	  50.000
C	  46.102	  59.670	  50.000
C	  53.261	  58.580	  50.000
C	  59.221	  61.204	  50.000
C	  63.504	  58.035	  50.000
C	  69.364	  58.704	  50.000
C	  83.673	  65.125	  50.000
C	  19.970	  89.632	  50.000
C	  41.306	  39.654	  50.000
C	  49.499	  40.494	  50.000
C	  77.729	  60.713	  50.000
C	  90.181	  66.213	  50.000
C	  27.394	  89.804	  50.000
C	  22.669	  16.619	  50.000
C	  54.452	  39.391	  50.000
C	  84.509	  56.799	  50.000
C	  93.143	  56.595	  50.000
C	  96.785	  62.896	  50.000
C	  27.721	  17.261	  50.000
C	  33.923	  16.903	  50.000
C	  40.284	  16.820	  50.000
C	  45.297	  15.828	  50.000
C	  53.979	  17.077	  50.000
C	  60.230	  14.717	  50.000
C	  97.633	  68.474	  50.000
C	  32.053	  91.900	  50.000
C	  58.012	  42.942	  50.000
C	  67.955	  15.462	  50.000
C	   4.931	  70.244	  50.000
C	  41.160	  89.864	  50.000
C	  63.409	  40.329	  50.000
C	  73.171	  15.234	  50.000
C	   9.341	  72.794	  50.000
C	  46.224	  89.547	  50.000
C	  72.188	  40.263	  50.000
C	  79.279	  13.559	  50.000
C	  17.963	  72.003	  50.000
C	  53.011	  90.687	  50.000
C	  77.152	  41.001	  50.000
C	  84.923	  17.786	  50.000
C	  23.022	  71.241	  50.000
C	  57.444	  93.176	  50.000
C	  86.885	  39.602	  50.000
C	  89.577	  13.830	  50.000
C	  28.015	  70.581	  50.000
C	  63.517	  89.505	  50.000
C	  92.502	  39.903	  50.000
C	  98.785	  15.937	  50.000
C	   2.753	  20.805	  50.000
C	   7.563	  22.530	  50.000
C	  16.098	  22.562	  50.000
C	  21.263	  22.421	  50.000
C	  28.437	  22.952	  50.000
C	  34.755	  23.793	  50.000
C	  40.501	  22.347	  50.000
C	  47.865	  20.480	  50.000
C	  52.331	  23.278	  50.000
C	  59.971	  22.063	  50.000
C	  66.691	  20.616	  50.000
C	  72.409	  23.652	  50.000
C	  78.092	  18.514	  50.000
C	  84.205	  24.161	  50.000
C	  91.347	  22.287	  50.000
C	  96.294	  21.316	  50.000
C	  34.268	  73.082	  50.000
C	  40.194	  70.507	  50.000
C	  69.122	  89.805	  50.000
C	  96.585	  42.968	  50.000
C	  77.920	  92.797	  50.000
C	  82.618	  90.513	  50.000
C	   3.690	  49.298	  50.000
C	  46.525	  73.453	  50.000
C	   9.513	  45.998	  50.000
C	  16.526	  46.769	  50.000
C	  51.543	  71.850	  50.000
C	  87.487	  91.765	  50.000
C	  22.046	  46.883	  50.000
C	  97.389	  88.577	  50.000
C	   1.228	  95.091	  50.000
C	  29.162	  45.478	  50.000
C	  59.336	  73.225	  50.000
C	   8.492	  95.281	  50.000
C	  36.353	  48.502	  50.000
C	  13.950	  96.204	  50.000
C	  23.103	  95.747	  50.000
C	  28.310	  95.838	  50.000
C	  34.639	  97.568	  50.000
C	  64.076	  70.510	  50.000
C	  43.147	  46.909	  50.000
C	  41.053	  95.467	  50.000
C	  48.246	  45.668	  50.000
C	  53.149	  46.881	  50.000
C	  47.737	  98.057	  50.000
C	  72.828	  73.706	  50.000
C	  60.305	  47.427	  50.000
C	  77.810	  72.744	  50.000
C	  83.076	  72.104	  50.000
C	  89.308	  73.697	  50.000
C	  94.905	  72.844	  50.000
C	  53.515	  96.368	  50.000
C	  61.357	   0.138	  50.000
C	  66.204	  96.193	  50.000
C	  73.370	  95.059	  50.000
C	  78.072	  97.940	  50.000
C	  84.623	  96.559	  50.000
C	  89.620	  96.633	  50.000
C	  95.649	  93.878	  50.000
C	  66.805	  44.094	  50.000
C	  70.165	  49.478	  50.000
C	  78.159	  46.033	  50.000
C	  85.200	  44.596	  50.000
C	  91.293	  46.470	  50.000
C	  97.564	  48.184	  50.000
      256
#	X	Y	Z
C	   1.766	  27.084	  50.000
C	   6.717	  28.049	  50.000
C	  16.111	  28.328	  50.000
C	  21.152	  27.900	  50.000
C	   4.475	  91.488	  50.000
C	  10.296	  88.990	  50.000
C	  15.203	  90.666	  50.000
C	  20.510	  90.628	  50.000
C	  26.903	  89.746	  50.000
C	  33.161	  92.280	  50.000
C	  40.364	  89.566	  50.000
C	  45.429	  89.576	  50.000
C	  53.028	  91.104	  50.000
C	  57.472	  93.833	  50.000
C	   2.441	  55.822	  50.000
C	   4.813	  16.995	  50.000
C	  27.487	  27.469	  50.000
C	   4.003	  75.703	  50.000
C	   5.841	   0.826	  50.000
C	   2.983	  65.639	  50.000
C	   3.094	  40.977	  50.000
C	  63.579	  89.511	  50.000
C	   9.298	  40.205	  50.000
C	   8.845	  50.547	  50.000
C	   9.354	  14.259	  50.000
C	  34.300	  28.262	  50.000
C	  15.938	  14.635	  50.000
C	  10.761	   2.202	  50.000
C	  11.645	  63.636	  50.000
C	  15.698	  41.282	  50.000
C	  13.562	  52.754	  50.000
C	  23.020	  51.975	  50.000
C	  42.407	  28.034	  50.000
C	  22.010	  15.392	  50.000
C	  68.823	  89.527	  50.000
C	  16.624	   2.226	  50.000
C	  17.305	  62.256	  50.000
C	  24.656	  42.604	  50.000
C	   9.757	  78.378	  50.000
C	  29.669	  55.751	  50.000
C	  14.891	  79.207	  50.000
C	  19.964	  78.612	  50.000
C	  78.310	  92.828	  50.000
C	  22.910	   2.593	  50.000
C	  21.210	  66.701	  50.000
C	  30.635	  39.066	  50.000
C	  47.391	  29.096	  50.000
C	  30.976	  49.579	  50.000
C	  53.606	  28.974	  50.000
C	  59.051	  26.828	  50.000
C	  82.731	  90.010	  50.000
C	  27.339	   5.479	  50.000
C	  33.556	   3.026	  50.000
C	  42.676	   1.821	  50.000
C	  47.501	   3.789	  50.000
C	  52.476	   2.855	  50.000
C	  57.542	   3.098	  50.000
C	  67.081	   2.139	  50.000
C	  71.784	   0.039	  50.000
C	  75.599	   7.046	  50.000
C	  83.282	   4.399	  50.000
C	  26.355	  78.138	  50.000
C	  64.619	  28.875	  50.000
C	  87.599	  91.703	  50.000
C	  27.169	  64.803	  50.000
C	  35.658	  38.704	  50.000
C	  27.237	  16.696	  50.000
C	  39.538	  52.139	  50.000
C	  88.138	   1.370	  50.000
C	  33.631	  81.340	  50.000
C	  40.674	  78.923	  50.000
C	  97.692	  89.007	  50.000
C	  37.224	  65.027	  50.000
C	  41.045	  39.661	  50.000
C	  48.719	  40.760	  50.000
C	  44.790	  51.651	  50.000
C	  95.862	   3.103	  50.000
C	  69.863	  27.823	  50.000
C	  48.442	  79.819	  50.000
C	  75.428	  28.688	  50.000
C	  42.108	  66.233	  50.000
C	  34.339	  17.684	  50.000
C	  53.618	  39.112	  50.000
C	  51.992	  53.244	  50.000
C	  56.926	  54.382	  50.000
C	  64.827	  52.325	  50.000
C	  73.452	  53.531	  50.000
C	   1.803	  95.800	  50.000
C	  83.985	  32.034	  50.000
C	  50.174	  65.340	  50.000
C	  39.913	  15.934	  50.000
C	  57.614	  42.815	  50.000
C	  53.030	  77.160	  50.000
C	  78.615	  54.645	  50.000
C	   1.787	   9.824	  50.000
C	   8.268	  95.833	  50.000
C	   9.817	   8.187	  50.000
C	  14.245	  97.765	  50.000
C	  55.209	  65.908	  50.000
C	  62.597	  41.246	  50.000
C	  59.277	  80.010	  50.000
C	  84.312	  52.141	  50.000
C	  89.598	  28.450	  50.000
C	  89.356	  51.318	  50.000
C	  22.699	  96.750	  50.000
C	  46.307	  14.960	  50.000
C	  59.915	  67.852	  50.000
C	  71.996	  40.486	  50.000
C	  65.779	  79.579	  50.000
C	  16.655	   8.501	  50.000
C	  97.178	  29.774	  50.000
C	  97.487	  53.886	  50.000
C	  27.877	  96.482	  50.000
C	  53.634	  17.621	  50.000
C	  67.177	  66.270	  50.000
C	  60.620	  14.751	  50.000
C	  71.105	  78.479	  50.000
C	  22.984	   9.393	  50.000
C	   1.496	  34.602	  50.000
C	   4.265	  60.711	  50.000
C	  34.920	  97.145	  50.000
C	  72.152	  65.806	  50.000
C	  77.951	  41.112	  50.000
C	  68.085	  15.537	  50.000
C	  79.067	  78.818	  50.000
C	  27.607	  11.576	  50.000
C	   9.842	  32.369	  50.000
C	   8.753	  58.318	  50.000
C	  40.949	  94.706	  50.000
C	  77.210	  66.464	  50.000
C	  48.544	  98.459	  50.000
C	  73.215	  15.116	  50.000
C	  84.187	  78.640	  50.000
C	  35.550	  10.146	  50.000
C	  13.478	  36.717	  50.000
C	  13.973	  58.111	  50.000
C	  86.979	  39.254	  50.000
C	  84.604	  64.897	  50.000
C	  92.141	  39.769	  50.000
C	  53.377	  96.870	  50.000
C	  78.562	  13.166	  50.000
C	  40.253	   7.709	  50.000
C	  19.621	  35.868	  50.000
C	  19.543	  57.293	  50.000
C	  90.267	  65.067	  50.000
C	  96.794	  43.450	  50.000
C	  97.900	  68.176	  50.000
C	  90.286	  79.903	  50.000
C	  85.862	  18.371	  50.000
C	  46.843	   9.842	  50.000
C	  28.068	  34.639	  50.000
C	  24.714	  56.916	  50.000
C	   3.468	  49.305	  50.000
C	  34.206	  59.156	  50.000
C	   4.549	  70.502	  50.000
C	  99.840	  79.909	  50.000
C	  90.468	  14.609	  50.000
C	  52.685	  11.522	  50.000
C	  34.977	  33.772	  50.000
C	  61.978	   0.524	  50.000
C	  10.427	  45.347	  50.000
C	  40.428	  57.200	  50.000
C	   8.633	  73.480	  50.000
C	   2.896	  83.964	  50.000
C	  99.687	  15.909	  50.000
C	   2.305	  21.414	  50.000
C	  41.945	  34.661	  50.000
C	  65.455	  96.018	  50.000
C	  15.305	  48.023	  50.000
C	  46.355	  59.726	  50.000
C	  17.724	  71.711	  50.000
C	   8.041	  83.429	  50.000
C	  60.790	   7.078	  50.000
C	  15.984	  85.550	  50.000
C	   7.989	  23.088	  50.000
C	  21.642	  84.790	  50.000
C	  73.714	  94.862	  50.000
C	  53.696	  59.636	  50.000
C	  23.046	  71.534	  50.000
C	  65.972	   7.604	  50.000
C	  47.235	  34.234	  50.000
C	  15.251	  23.320	  50.000
C	  21.711	  46.766	  50.000
C	  26.529	  83.205	  50.000
C	  29.337	  44.835	  50.000
C	  33.981	  87.323	  50.000
C	  28.273	  72.347	  50.000
C	  70.788	   9.027	  50.000
C	  53.168	  34.019	  50.000
C	  22.729	  22.476	  50.000
C	  78.448	  98.354	  50.000
C	  36.038	  48.539	  50.000
C	  58.561	  61.387	  50.000
C	  64.124	  57.357	  50.000
C	  34.405	  72.892	  50.000
C	  81.534	   9.122	  50.000
C	  59.249	  34.041	  50.000
C	  29.047	  22.485	  50.000
C	  85.324	  97.166	  50.000
C	  43.337	  46.800	  50.000
C	  90.400	  96.318	  50.000
C	  69.493	  59.659	  50.000
C	  40.909	  71.336	  50.000
C	  77.999	  60.800	  50.000
C	  84.721	  57.167	  50.000
C	  34.926	  23.216	  50.000
C	  49.431	  45.805	  50.000
C	  38.291	  83.490	  50.000
C	  95.589	  94.953	  50.000
C	  84.420	  13.372	  50.000
C	  46.448	  72.704	  50.000
C	  66.718	  33.628	  50.000
C	  92.397	  55.316	  50.000
C	  71.777	  33.856	  50.000
C	  54.374	  46.761	  50.000
C	  47.819	  85.124	  50.000
C	  88.231	   8.860	  50.000
C	  52.330	  71.849	  50.000
C	  39.841	  21.713	  50.000
C	  96.775	  63.212	  50.000
C	  76.710	  35.326	  50.000
C	  60.412	  47.642	  50.000
C	  53.500	  84.745	  50.000
C	  95.512	   8.748	  50.000
C	  59.295	  72.985	  50.000
C	  47.361	  20.115	  50.000
C	  81.437	  37.393	  50.000
C	  66.023	  45.168	  50.000
C	  61.030	  85.144	  50.000
C	  64.350	  70.388	  50.000
C	  52.583	  23.265	  50.000
C	  90.516	  33.720	  50.000
C	  69.317	  50.066	  50.000
C	  66.142	  85.196	  50.000
C	  74.063	  74.223	  50.000
C	  71.666	  85.217	  50.000
C	  77.622	  85.315	  50.000
C	  78.664	  46.375	  50.000
C	  60.589	  21.945	  50.000
C	  78.759	  72.368	  50.000
C	  96.829	  36.588	  50.000
C	  83.731	  83.654	  50.000
C	  85.900	  44.169	  50.000
C	  67.417	  20.566	  50.000
C	  84.000	  71.176	  50.000
C	  88.773	  85.262	  50.000
C	  90.761	  45.937	  50.000
C	  72.662	  23.496	  50.000
C	  90.257	  72.552	  50.000
C	  94.817	  82.805	  50.000
C	  98.136	  48.362	  50.000
C	  79.123	  18.239	  50.000
C	  95.311	  72.583	  50.000
C	  84.301	  23.170	  50.000
C	  92.245	  22.815	  50.000
C	  97.229	  21.636	  50.000
      256
#	X	Y	Z
C	   2.731	  56.597	  50.000
C	   8.237	  51.889	  50.000
C	  13.052	  53.683	  50.000
C	  22.721	  52.825	  50.000
C	  30.118	  57.057	  50.000
C	  31.512	  50.051	  50.000
C	  40.176	  52.338	  50.000
C	  45.136	  51.055	  50.000
C	   2.204	  66.155	  50.000
C	   4.800	  75.989	  50.000
C	   5.088	  16.502	  50.000
C	   1.470	  26.990	  50.000
C	   2.744	  41.217	  50.000
C	   9.846	  40.383	  50.000
C	  16.223	  40.472	  50.000
C	  23.537	  42.884	  50.000
C	  29.857	  39.402	  50.000
C	  35.849	  38.428	  50.000
C	  42.502	  39.800	  50.000
C	  48.101	  41.228	  50.000
C	  54.537	  38.211	  50.000
C	  57.747	  43.261	  50.000
C	  62.626	  41.534	  50.000
C	  72.374	  40.286	  50.000
C	  77.547	  41.449	  50.000
C	  86.605	  39.242	  50.000
C	  91.961	  39.614	  50.000
C	  97.933	  42.945	  50.000
C	   4.622	   1.015	  50.000
C	  10.611	   1.913	  50.000
C	  17.121	   2.394	  50.000
C	  51.025	  52.614	  50.000
C	  11.777	  63.571	  50.000
C	  10.161	  79.853	  50.000
C	   9.641	  14.229	  50.000
C	   6.469	  28.588	  50.000
C	   3.775	  49.111	  50.000
C	   3.981	  90.273	  50.000
C	  10.362	  89.944	  50.000
C	  55.962	  54.632	  50.000
C	  64.573	  52.559	  50.000
C	  73.641	  53.818	  50.000
C	  78.988	  55.819	  50.000
C	  84.140	  52.284	  50.000
C	  89.215	  51.918	  50.000
C	  97.840	  54.282	  50.000
C	  15.383	  79.705	  50.000
C	  15.772	  14.819	  50.000
C	  16.601	  29.148	  50.000
C	  10.688	  45.466	  50.000
C	  15.549	  47.900	  50.000
C	  20.840	  47.147	  50.000
C	  28.468	  45.189	  50.000
C	  36.165	  47.934	  50.000
C	  17.514	  62.471	  50.000
C	   5.611	  60.980	  50.000
C	  20.698	  79.343	  50.000
C	  21.747	  15.441	  50.000
C	  22.161	  28.921	  50.000
C	  23.070	   3.291	  50.000
C	  27.186	  28.265	  50.000
C	  15.381	  91.332	  50.000
C	  20.244	  66.950	  50.000
C	   9.234	  57.487	  50.000
C	  25.841	  64.909	  50.000
C	  25.927	  78.301	  50.000
C	  27.945	   5.369	  50.000
C	  32.792	  80.829	  50.000
C	  34.641	  27.659	  50.000
C	  43.037	  46.334	  50.000
C	  14.217	  58.691	  50.000
C	  38.255	  64.508	  50.000
C	  26.941	  17.281	  50.000
C	  34.225	  16.956	  50.000
C	  42.119	  77.928	  50.000
C	  42.963	  27.084	  50.000
C	  20.500	  90.880	  50.000